[TITLE]
Magnetic Island EPANET Water Model v1.0.0
GIS Data by Townsville City Council is licensed under CC BY 4.0
https://data-tsvcitycouncil.opendata.arcgis.com/
"Magnetic Island EPANET Water Model" by Luke Butler is licensed under CC BY 4.0
https://github.com/modelcreate/open-models
Q_VAR_PROJECTION=EPSG:20255
[JUNCTIONS]
;ID              	Elev        	Demand      	Pattern
 J_00001         	9.029849    	0           	                	;
 J_00002         	18.479286   	0.001447    	Leakage         	;
 J_00003         	18.839807   	0           	                	;
 J_00004         	21.679911   	0           	                	;
 J_00005         	21.942614   	0           	                	;
 J_00006         	14.285767   	0           	                	;
 J_00007         	14.283619   	0.004688    	Cust_Pattern_20 	;
 J_00008         	25.083915   	0           	                	;
 J_00009         	25.336834   	0           	                	;
 J_00010         	5.004634    	0           	                	;
 J_00011         	4.937662    	0           	                	;
 J_00012         	13.077661   	0           	                	;
 J_00013         	12.884964   	0.005937    	Cust_Pattern_18 	;
 J_00014         	4.661769    	0           	                	;
 J_00015         	18.820051   	0           	                	;
 J_00016         	25.151098   	0           	                	;
 J_00017         	15.592564   	0           	                	;
 J_00018         	15.607942   	0           	                	;
 J_00019         	3.25226     	0           	                	;
 J_00020         	3.56687     	0.004074    	Cust_Pattern_17 	;
 J_00021         	5.339557    	0           	                	;
 J_00022         	5.154345    	0           	                	;
 J_00023         	9.020749    	0           	                	;
 J_00024         	10.045012   	0.005035    	Cust_Pattern_9  	;
 J_00025         	6.084241    	0.005567    	Cust_Pattern_2  	;
 J_00026         	8.404219    	0.001447    	Leakage         	;
 J_00027         	3.979852    	0.003507    	Cust_Pattern_7  	;
 J_00028         	4.22689     	0           	                	;
 J_00029         	20.077599   	0           	                	;
 J_00030         	17.785348   	0.005937    	Cust_Pattern_23 	;
 J_00031         	17.916636   	0           	                	;
 J_00032         	15.855917   	0           	                	;
 J_00033         	15.916168   	0           	                	;
 J_00034         	25.155965   	0           	                	;
 J_00035         	29.560329   	0           	                	;
 J_00036         	30.186425   	0           	                	;
 J_00037         	5.593499    	0           	                	;
 J_00038         	15.543749   	0           	                	;
 J_00039         	15.492934   	0.003704    	Cust_Pattern_11 	;
 J_00040         	10.14204    	0           	                	;
 J_00041         	8.782417    	0           	                	;
 J_00042         	10.753516   	0.005741    	Cust_Pattern_5  	;
 J_00043         	7.539129    	0           	                	;
 J_00044         	3.77053     	0           	                	;
 J_00045         	2.975583    	0.001447    	Leakage         	;
 J_00046         	4.217479    	0           	                	;
 J_00047         	3.303632    	0           	                	;
 J_00048         	4.367503    	0           	                	;
 J_00049         	70.934087   	0           	                	;
 J_00050         	2.506649    	0.001447    	Leakage         	;
 J_00051         	7.481841    	0.003669    	Cust_Pattern_10 	;
 J_00052         	9.429775    	0           	                	;
 J_00053         	7.267714    	0.00956     	Cust_Pattern_16 	;
 J_00054         	18.191782   	0           	                	;
 J_00055         	18.883238   	0           	                	;
 J_00056         	2.965635    	0           	                	;
 J_00057         	1.841481    	0.001447    	Leakage         	;
 J_00058         	3.135884    	0           	                	;
 J_00059         	1.652367    	0           	                	;
 J_00060         	2.745186    	0.001447    	Leakage         	;
 J_00061         	2.597997    	0.0039      	Cust_Pattern_10 	;
 J_00062         	4.646059    	0           	                	;
 J_00063         	4.653693    	0           	                	;
 J_00064         	3.95577     	0           	                	;
 J_00065         	3.936672    	0           	                	;
 J_00066         	2.927155    	0           	                	;
 J_00067         	8.882126    	0.005058    	Cust_Pattern_3  	;
 J_00068         	11.592904   	0           	                	;
 J_00069         	5.733831    	0           	                	;
 J_00070         	4.842843    	0.001447    	Leakage         	;
 J_00071         	5.838185    	0           	                	;
 J_00072         	6.267505    	0           	                	;
 J_00073         	34.29028    	0           	                	;
 J_00074         	73.20697    	0           	                	;
 J_00075         	9.876114    	0           	                	;
 J_00076         	9.917368    	0.006238    	Cust_Pattern_17 	;
 J_00077         	9.002601    	0.004722    	Cust_Pattern_3  	;
 J_00078         	6.732622    	0           	                	;
 J_00079         	6.475839    	0.004711    	Cust_Pattern_10 	;
 J_00080         	3.922438    	0.004144    	Cust_Pattern_11 	;
 J_00081         	3.930765    	0           	                	;
 J_00082         	3.672182    	0           	                	;
 J_00083         	3.9342      	0           	                	;
 J_00084         	7.628942    	0.005856    	Cust_Pattern_4  	;
 J_00085         	8.301153    	0           	                	;
 J_00086         	4.976518    	0           	                	;
 J_00087         	7.745715    	0.001447    	Leakage         	;
 J_00088         	4.688202    	0           	                	;
 J_00089         	9.842602    	0           	                	;
 J_00090         	6.878555    	0.004653    	Cust_Pattern_7  	;
 J_00091         	15.307414   	0           	                	;
 J_00092         	15.12649    	0           	                	;
 J_00093         	8.589724    	0.005266    	Cust_Pattern_21 	;
 J_00094         	9.539182    	0.001447    	Leakage         	;
 J_00095         	14.277411   	0           	                	;
 J_00096         	15.942369   	0.001447    	Leakage         	;
 J_00097         	7.923016    	0.003507    	Cust_Pattern_10 	;
 J_00098         	8.136691    	0.006887    	Cust_Pattern_4  	;
 J_00099         	4.311836    	0           	                	;
 J_00100         	4.580035    	0           	                	;
 J_00101         	4.502139    	0           	                	;
 J_00102         	25.7199     	0           	                	;
 J_00103         	14.175438   	0           	                	;
 J_00104         	12.236764   	0.003877    	Cust_Pattern_21 	;
 J_00105         	20.683005   	0.00478     	Cust_Pattern_3  	;
 J_00106         	19.497959   	0.003785    	Cust_Pattern_18 	;
 J_00107         	70.735614   	0           	                	;
 J_00108         	70.558006   	0           	                	;
 J_00109         	6.520367    	0.005347    	Cust_Pattern_7  	;
 J_00110         	6.060917    	0           	                	;
 J_00111         	11.254473   	0.004954    	Cust_Pattern_15 	;
 J_00112         	11.754734   	0           	                	;
 J_00113         	6.130083    	0           	                	;
 J_00114         	2.848604    	0.004236    	Cust_Pattern_19 	;
 J_00115         	8.306897    	0.003924    	Cust_Pattern_8  	;
 J_00116         	6.608408    	0.001447    	Leakage         	;
 J_00117         	11.418702   	0.004745    	Cust_Pattern_3  	;
 J_00118         	5.638106    	0.001447    	Leakage         	;
 J_00119         	6.110038    	0           	                	;
 J_00120         	6.974389    	0.005058    	Cust_Pattern_13 	;
 J_00121         	9.564067    	0           	                	;
 J_00122         	7.773286    	0           	                	;
 J_00123         	3.263027    	0           	                	;
 J_00124         	3.297658    	0           	                	;
 J_00125         	4.487352    	0.00691     	Cust_Pattern_19 	;
 J_00126         	10.250557   	0.002894    	Leakage         	;
 J_00127         	1.445461    	0           	                	;
 J_00128         	4.858604    	0           	                	;
 J_00129         	3.872808    	0           	                	;
 J_00130         	4.281442    	0.002894    	Leakage         	;
 J_00131         	23.820049   	0           	                	;
 J_00132         	2.292572    	0.001447    	Leakage         	;
 J_00133         	1.35465     	0           	                	;
 J_00134         	5.814332    	0           	                	;
 J_00135         	10.949419   	0           	                	;
 J_00136         	3.300232    	0.005822    	Cust_Pattern_17 	;
 J_00137         	3.162476    	0           	                	;
 J_00138         	1.481875    	0           	                	;
 J_00139         	1.828221    	0           	                	;
 J_00140         	3.096758    	0           	                	;
 J_00141         	7.820112    	0           	                	;
 J_00142         	2.307939    	0           	                	;
 J_00143         	9.826069    	0           	                	;
 J_00144         	14.440469   	0.006921    	Cust_Pattern_4  	;
 J_00145         	12.646096   	0           	                	;
 J_00146         	12.997971   	0           	                	;
 J_00147         	3.001574    	0.00456     	Cust_Pattern_8  	;
 J_00148         	8.741417    	0.006424    	Cust_Pattern_10 	;
 J_00149         	13.251228   	0           	                	;
 J_00150         	14.904331   	0.003854    	Cust_Pattern_14 	;
 J_00151         	15.1578     	0           	                	;
 J_00152         	19.956332   	0.005833    	Cust_Pattern_9  	;
 J_00153         	21.757566   	0.003912    	Cust_Pattern_4  	;
 J_00154         	3.332834    	0           	                	;
 J_00155         	4.207091    	0           	                	;
 J_00156         	16.462452   	0           	                	;
 J_00157         	10.920308   	0.005937    	Cust_Pattern_16 	;
 J_00158         	17.035106   	0           	                	;
 J_00159         	6.616114    	0           	                	;
 J_00160         	10.726506   	0           	                	;
 J_00161         	23.176899   	0           	                	;
 J_00162         	22.120604   	0           	                	;
 J_00163         	3.208222    	0           	                	;
 J_00164         	4.023133    	0           	                	;
 J_00165         	24.177952   	0           	                	;
 J_00166         	24.578524   	0           	                	;
 J_00167         	7.306313    	0           	                	;
 J_00168         	7.500329    	0.001447    	Leakage         	;
 J_00169         	8.092335    	0           	                	;
 J_00170         	7.580861    	0           	                	;
 J_00171         	21.459954   	0           	                	;
 J_00172         	23.939396   	0           	                	;
 J_00173         	8.602393    	0           	                	;
 J_00174         	7.396504    	0.006296    	Cust_Pattern_2  	;
 J_00175         	18.065731   	0           	                	;
 J_00176         	11.533159   	0           	                	;
 J_00177         	10.606657   	0           	                	;
 J_00178         	3.492932    	0           	                	;
 J_00179         	4.05616     	0           	                	;
 J_00180         	5.207611    	0           	                	;
 J_00181         	5.282259    	0.001447    	Leakage         	;
 J_00182         	6.573365    	0           	                	;
 J_00183         	6.379696    	0           	                	;
 J_00184         	6.178875    	0.004479    	Cust_Pattern_1  	;
 J_00185         	2.921706    	0           	                	;
 J_00186         	7.595685    	0.005995    	Cust_Pattern_12 	;
 J_00187         	10.701643   	0           	                	;
 J_00188         	6.366092    	0           	                	;
 J_00189         	12.616961   	0           	                	;
 J_00190         	17.760476   	0           	                	;
 J_00191         	10.527567   	0           	                	;
 J_00192         	12.737063   	0.006343    	Cust_Pattern_6  	;
 J_00193         	3.91541     	0.011076    	Cust_Pattern_4  	;
 J_00194         	7.139605    	0           	                	;
 J_00195         	7.023323    	0           	                	;
 J_00196         	9.448754    	0           	                	;
 J_00197         	20.29308    	0           	                	;
 J_00198         	22.541627   	0.001447    	Leakage         	;
 J_00199         	18.537707   	0           	                	;
 J_00200         	18.633105   	0.001447    	Leakage         	;
 J_00201         	9.189427    	0           	                	;
 J_00202         	5.226621    	0.004086    	Cust_Pattern_2  	;
 J_00203         	7.869284    	0           	                	;
 J_00204         	7.496076    	0.001447    	Leakage         	;
 J_00205         	22.853116   	0.006574    	Cust_Pattern_3  	;
 J_00206         	12.440243   	0           	                	;
 J_00207         	8.94706     	0           	                	;
 J_00208         	11.508431   	0.003912    	Cust_Pattern_1  	;
 J_00209         	4.260246    	0           	                	;
 J_00210         	3.931364    	0           	                	;
 J_00211         	5.728785    	0.005451    	Cust_Pattern_3  	;
 J_00212         	5.442902    	0           	                	;
 J_00213         	5.320796    	0           	                	;
 J_00214         	5.699523    	0           	                	;
 J_00215         	14.301536   	0           	                	;
 J_00216         	14.082776   	0           	                	;
 J_00217         	5.229003    	0.004688    	Cust_Pattern_22 	;
 J_00218         	5.426524    	0           	                	;
 J_00219         	14.088586   	0           	                	;
 J_00220         	13.647264   	0           	                	;
 J_00221         	5.038605    	0           	                	;
 J_00222         	12.039202   	0           	                	;
 J_00223         	14.216875   	0           	                	;
 J_00224         	5.018665    	0           	                	;
 J_00225         	22.65671    	0           	                	;
 J_00226         	11.363454   	0           	                	;
 J_00227         	11.478107   	0           	                	;
 J_00228         	10.062949   	0           	                	;
 J_00229         	21.260985   	0           	                	;
 J_00230         	26.634518   	0.005833    	Cust_Pattern_19 	;
 J_00231         	8.235142    	0.005637    	Cust_Pattern_11 	;
 J_00232         	10.435952   	0           	                	;
 J_00233         	8.343367    	0.005162    	Cust_Pattern_16 	;
 J_00234         	16.162439   	0           	                	;
 J_00235         	29.866393   	0           	                	;
 J_00236         	6.646818    	0.006424    	Cust_Pattern_11 	;
 J_00237         	116.784516  	0           	                	;
 J_00238         	13.861233   	0.004201    	Cust_Pattern_15 	;
 J_00239         	115.23769   	0           	                	;
 J_00240         	16.796716   	0           	                	;
 J_00241         	16.039113   	0           	                	;
 J_00242         	13.451589   	0           	                	;
 J_00243         	3.514965    	0.006887    	Cust_Pattern_2  	;
 J_00244         	10.950024   	0           	                	;
 J_00245         	8.851548    	0.004618    	Cust_Pattern_11 	;
 J_00246         	7.073988    	0           	                	;
 J_00247         	9.407917    	0.003519    	Cust_Pattern_12 	;
 J_00248         	14.938721   	0           	                	;
 J_00249         	12.720655   	0           	                	;
 J_00250         	25.286686   	0           	                	;
 J_00251         	16.871234   	0           	                	;
 J_00252         	12.829665   	0           	                	;
 J_00253         	16.418981   	0           	                	;
 J_00254         	24.325935   	0           	                	;
 J_00255         	19.213803   	0           	                	;
 J_00256         	13.884861   	0           	                	;
 J_00257         	21.879181   	0           	                	;
 J_00258         	19.560063   	0           	                	;
 J_00259         	17.776662   	0           	                	;
 J_00260         	16.38069    	0           	                	;
 J_00261         	16.656937   	0           	                	;
 J_00262         	22.33466    	0           	                	;
 J_00263         	4.22448     	0.004965    	Cust_Pattern_7  	;
 J_00264         	18.091384   	0.006076    	Cust_Pattern_20 	;
 J_00265         	16.419545   	0           	                	;
 J_00266         	70.997065   	0           	                	;
 J_00267         	70.895626   	0           	                	;
 J_00268         	19.426787   	0           	                	;
 J_00269         	2.543581    	0           	                	;
 J_00270         	2.00286     	0           	                	;
 J_00271         	20.256549   	0.001447    	Leakage         	;
 J_00272         	2.711244    	0           	                	;
 J_00273         	15.910847   	0.003889    	Cust_Pattern_7  	;
 J_00274         	16.341066   	0           	                	;
 J_00275         	70.833593   	0           	                	;
 J_00276         	71.142335   	0           	                	;
 J_00277         	16.444112   	0.006944    	Cust_Pattern_7  	;
 J_00278         	3.502483    	0           	                	;
 J_00279         	16.703874   	0           	                	;
 J_00280         	12.996778   	0           	                	;
 J_00281         	13.751508   	0           	                	;
 J_00282         	2.367471    	0           	                	;
 J_00283         	2.977734    	0           	                	;
 J_00284         	15.71696    	0.001447    	Leakage         	;
 J_00285         	14.251203   	0.001447    	Leakage         	;
 J_00286         	63.123547   	0           	                	;
 J_00287         	5.277174    	0           	                	;
 J_00288         	5.206566    	0.005694    	Cust_Pattern_23 	;
 J_00289         	5.000971    	0.005139    	Cust_Pattern_4  	;
 J_00290         	5.344904    	0           	                	;
 J_00291         	13.156493   	0           	                	;
 J_00292         	15.209667   	0.005567    	Cust_Pattern_5  	;
 J_00293         	14.418513   	0           	                	;
 J_00294         	13.973015   	0           	                	;
 J_00295         	9.350396    	0           	                	;
 J_00296         	13.534054   	0.003785    	Cust_Pattern_9  	;
 J_00297         	14.547685   	0           	                	;
 J_00298         	8.919196    	0           	                	;
 J_00299         	4.232247    	0           	                	;
 J_00300         	3.428396    	0           	                	;
 J_00301         	10.089127   	0           	                	;
 J_00302         	21.201531   	0.001447    	Leakage         	;
 J_00303         	4.022037    	0.005694    	Cust_Pattern_2  	;
 J_00304         	4.069696    	0           	                	;
 J_00305         	4.405953    	0           	                	;
 J_00306         	3.082412    	0.003866    	Cust_Pattern_15 	;
 J_00307         	5.800233    	0           	                	;
 J_00308         	3.017252    	0           	                	;
 J_00309         	17.974673   	0           	                	;
 J_00310         	15.053862   	0.001447    	Leakage         	;
 J_00311         	8.608232    	0.001447    	Leakage         	;
 J_00312         	8.868194    	0.005035    	Cust_Pattern_3  	;
 J_00313         	4.426699    	0           	                	;
 J_00314         	2.78121     	0           	                	;
 J_00315         	2.278057    	0           	                	;
 J_00316         	4.207012    	0.004688    	Cust_Pattern_17 	;
 J_00317         	8.805811    	0           	                	;
 J_00318         	22.199735   	0.005359    	Cust_Pattern_1  	;
 J_00319         	23.603767   	0.004549    	Cust_Pattern_13 	;
 J_00320         	33.698909   	0           	                	;
 J_00321         	29.9758     	0           	                	;
 J_00322         	30.906585   	0           	                	;
 J_00323         	70.800683   	0           	                	;
 J_00324         	79.210006   	0           	                	;
 J_00325         	77.515329   	0           	                	;
 J_00326         	77.199416   	0           	                	;
 J_00327         	64.672488   	0           	                	;
 J_00328         	64.857807   	0           	                	;
 J_00329         	9.054317    	0           	                	;
 J_00330         	22.81831    	0           	                	;
 J_00331         	64.702888   	0           	                	;
 J_00332         	9.579808    	0.008206    	Cust_Pattern_3  	;
 J_00333         	64.634215   	0           	                	;
 J_00334         	18.588627   	0           	                	;
 J_00335         	7.8364      	0           	                	;
 J_00336         	21.383717   	0           	                	;
 J_00337         	21.832725   	0.004294    	Cust_Pattern_7  	;
 J_00338         	21.622229   	0           	                	;
 J_00339         	5.405171    	0.005509    	Cust_Pattern_17 	;
 J_00340         	7.937096    	0.004167    	Cust_Pattern_5  	;
 J_00341         	3.227782    	0           	                	;
 J_00342         	5.123932    	0           	                	;
 J_00343         	16.083478   	0           	                	;
 J_00344         	10.537168   	0.004329    	Cust_Pattern_5  	;
 J_00345         	7.458193    	0           	                	;
 J_00346         	16.047546   	0           	                	;
 J_00347         	4.708649    	0           	                	;
 J_00348         	7.153289    	0           	                	;
 J_00349         	5.355905    	0.00397     	Cust_Pattern_13 	;
 J_00350         	13.260091   	0.006921    	Cust_Pattern_1  	;
 J_00351         	14.217331   	0.004988    	Cust_Pattern_11 	;
 J_00352         	23.175777   	0.005324    	Cust_Pattern_5  	;
 J_00353         	25.746428   	0           	                	;
 J_00354         	13.559649   	0.00434     	Leakage         	;
 J_00355         	5.769246    	0.00691     	Cust_Pattern_23 	;
 J_00356         	9.847913    	0           	                	;
 J_00357         	4.124637    	0           	                	;
 J_00358         	3.850875    	0           	                	;
 J_00359         	4.328035    	0.005845    	Cust_Pattern_13 	;
 J_00360         	8.066435    	0           	                	;
 J_00361         	8.497217    	0           	                	;
 J_00362         	10.420789   	0           	                	;
 J_00363         	8.95351     	0.006748    	Cust_Pattern_1  	;
 J_00364         	17.48135    	0           	                	;
 J_00365         	16.452011   	0           	                	;
 J_00366         	10.575803   	0           	                	;
 J_00367         	60.849243   	0           	                	;
 J_00368         	10.432391   	0           	                	;
 J_00369         	10.917826   	0.005266    	Cust_Pattern_7  	;
 J_00370         	64.540121   	0           	                	;
 J_00371         	6.213129    	0           	                	;
 J_00372         	4.896245    	0           	                	;
 J_00373         	5.3171      	0           	                	;
 J_00374         	12.321721   	0.003472    	Cust_Pattern_8  	;
 J_00375         	12.697927   	0.005648    	Cust_Pattern_16 	;
 J_00376         	4.292463    	0           	                	;
 J_00377         	4.004097    	0           	                	;
 J_00378         	33.78079    	0           	                	;
 J_00379         	73.876483   	0           	                	;
 J_00380         	3.837612    	0           	                	;
 J_00381         	15.33365    	0.006701    	Cust_Pattern_11 	;
 J_00382         	14.224166   	0.005833    	Cust_Pattern_3  	;
 J_00383         	5.433153    	0           	                	;
 J_00384         	5.667585    	0           	                	;
 J_00385         	2.692069    	0.005093    	Cust_Pattern_11 	;
 J_00386         	2.137225    	0           	                	;
 J_00387         	2.133892    	0           	                	;
 J_00388         	3.112747    	0           	                	;
 J_00389         	4.404026    	0.005694    	Cust_Pattern_22 	;
 J_00390         	8.517804    	0.004988    	Cust_Pattern_23 	;
 J_00391         	12.242584   	0.00515     	Cust_Pattern_10 	;
 J_00392         	17.177924   	0.001447    	Leakage         	;
 J_00393         	5.021042    	0.00625     	Cust_Pattern_14 	;
 J_00394         	18.683796   	0.005208    	Cust_Pattern_12 	;
 J_00395         	12.421905   	0           	                	;
 J_00396         	12.949604   	0           	                	;
 J_00397         	12.344896   	0           	                	;
 J_00398         	64.55954    	0           	                	;
 J_00399         	64.264118   	0           	                	;
 J_00400         	4.251514    	0.00419     	Cust_Pattern_6  	;
 J_00401         	2.555416    	0.002894    	Leakage         	;
 J_00402         	3.880863    	0.004641    	Cust_Pattern_6  	;
 J_00403         	3.616677    	0           	                	;
 J_00404         	2.81082     	0.004745    	Cust_Pattern_21 	;
 J_00405         	12.901981   	0.006215    	Cust_Pattern_12 	;
 J_00406         	12.981089   	0           	                	;
 J_00407         	2.30183     	0           	                	;
 J_00408         	10.467182   	0           	                	;
 J_00409         	2.829604    	0           	                	;
 J_00410         	19.660367   	0.002894    	Leakage         	;
 J_00411         	23.025874   	0           	                	;
 J_00412         	14.447023   	0.004375    	Cust_Pattern_15 	;
 J_00413         	12.114224   	0           	                	;
 J_00414         	18.819755   	0           	                	;
 J_00415         	16.911372   	0           	                	;
 J_00416         	4.660007    	0           	                	;
 J_00417         	6.690722    	0.002894    	Leakage         	;
 J_00418         	3.927636    	0.00662     	Cust_Pattern_4  	;
 J_00419         	1.248552    	0           	                	;
 J_00420         	2.466968    	0.00603     	Cust_Pattern_7  	;
 J_00421         	10.486834   	0           	                	;
 J_00422         	17.757037   	0           	                	;
 J_00423         	4.984593    	0           	                	;
 J_00424         	8.767238    	0.005926    	Cust_Pattern_8  	;
 J_00425         	5.295792    	0           	                	;
 J_00426         	5.381454    	0.001447    	Leakage         	;
 J_00427         	-0.569245   	0           	                	;
 J_00428         	22.134695   	0.003993    	Cust_Pattern_9  	;
 J_00429         	6.846122    	0           	                	;
 J_00430         	15.012593   	0.001447    	Leakage         	;
 J_00431         	8.437355    	0.001447    	Leakage         	;
 J_00432         	3.377683    	0           	                	;
 J_00433         	23.968618   	0           	                	;
 J_00434         	13.61112    	0.005718    	Cust_Pattern_7  	;
 J_00435         	14.39312    	0.004433    	Cust_Pattern_13 	;
 J_00436         	4.468722    	0           	                	;
 J_00437         	3.99405     	0           	                	;
 J_00438         	12.941428   	0.002894    	Leakage         	;
 J_00439         	6.027965    	0           	                	;
 J_00440         	5.967808    	0           	                	;
 J_00441         	10.503698   	0           	                	;
 J_00442         	5.018501    	0.005324    	Cust_Pattern_17 	;
 J_00443         	8.315228    	0.006412    	Cust_Pattern_15 	;
 J_00444         	16.513447   	0.002894    	Leakage         	;
 J_00445         	14.70993    	0           	                	;
 J_00446         	3.911365    	0           	                	;
 J_00447         	0.806317    	0           	                	;
 J_00448         	4.129117    	0.001447    	Leakage         	;
 J_00449         	4.41189     	0           	                	;
 J_00450         	3.637719    	0.001447    	Leakage         	;
 J_00451         	4.280016    	0           	                	;
 J_00452         	3.715611    	0           	                	;
 J_00453         	18.048309   	0           	                	;
 J_00454         	19.785539   	0           	                	;
 J_00455         	19.7632     	0           	                	;
 J_00456         	30.220107   	0.003576    	Cust_Pattern_16 	;
 J_00457         	30.203813   	0.004641    	Cust_Pattern_16 	;
 J_00458         	21.76358    	0           	                	;
 J_00459         	21.769717   	0.006319    	Cust_Pattern_20 	;
 J_00460         	16.456711   	0           	                	;
 J_00461         	16.439201   	0           	                	;
 J_00462         	21.814985   	0.003692    	Cust_Pattern_4  	;
 J_00463         	21.785742   	0           	                	;
 J_00464         	9.051844    	0           	                	;
 J_00465         	9.049167    	0.001447    	Leakage         	;
 J_00466         	6.872107    	0.001447    	Leakage         	;
 J_00467         	6.853617    	0           	                	;
 J_00468         	5.645024    	0           	                	;
 J_00469         	5.646879    	0           	                	;
 J_00470         	9.062357    	0           	                	;